$DATA1 SOURCE='HSPICE' VERSION='C-2009.09 32-BIT'
.TITLE '.param'
 pwr_latch1       tpdr             tpdf             tpd_latch1        
 temper           alter#            
 -8.191e-06        2.081e-09        1.560e-10        1.118e-09        
   25.0000           3.0000         
