$DATA1 SOURCE='HSPICE' VERSION='C-2009.09 32-BIT'
.TITLE '.title dnu_tt latch'
 pwr_latch1       tpdr             tpdf             tpd_latch1        
 temper           alter#            
 -1.468e-07        2.696e-11        2.466e-11        2.581e-11        
   25.0000           1.0000         
