$DATA1 SOURCE='HSPICE' VERSION='C-2009.09 32-BIT'
.TITLE '.param'
 pwr_latch1       tpdr             tpdf             tpd_latch1        
 temper           alter#            
 -1.380e-07        2.809e-11        2.571e-11        2.690e-11        
   25.0000           2.0000         
