$DATA1 SOURCE='HSPICE' VERSION='C-2009.09 32-BIT'
.TITLE '.param'
 pwr_latch1       tpdr             tpdf             tpd_latch1        
 temper           alter#            
 -5.342e-06        2.096e-09        1.572e-10        1.126e-09        
   25.0000           8.0000         
