$DATA1 SOURCE='HSPICE' VERSION='C-2009.09 32-BIT'
.TITLE '.param'
 pwr_latch1       tpdr             tpdf             tpd_latch1        
 temper           alter#            
 -1.180e-07        3.139e-11        2.893e-11        3.016e-11        
   25.0000           5.0000         
