$DATA1 SOURCE='HSPICE' VERSION='C-2009.09 32-BIT'
.TITLE '.title dnu_tt latch'
 pwr_latch1       tpdr             tpdf             tpd_latch1        
 temper           alter#            
 -9.571e-06        2.081e-09        1.527e-10        1.117e-09        
   25.0000           1.0000         
