$DATA1 SOURCE='HSPICE' VERSION='C-2009.09 32-BIT'
.TITLE '.param'
 pwr_latch1       tpdr             tpdf             tpd_latch1        
 temper           alter#            
 -6.835e-06        2.080e-09        1.582e-10        1.119e-09        
   25.0000           5.0000         
