$DATA1 SOURCE='HSPICE' VERSION='C-2009.09 32-BIT'
.TITLE '.param'
 pwr_latch1       tpdr             tpdf             tpd_latch1        
 temper           alter#            
 -1.054e-07        3.462e-11        3.213e-11        3.337e-11        
   25.0000           8.0000         
