$DATA1 SOURCE='HSPICE' VERSION='C-2009.09 32-BIT'
.TITLE '.param'
 pwr_latch1       tpdr             tpdf             tpd_latch1        
 temper           alter#            
 -1.302e-07        2.923e-11        2.678e-11        2.801e-11        
   25.0000           3.0000         
